! This file was written by the model and records the non-default parameters used at run-time.

! === module MOM ===
USE_REGRIDDING = True           !   [Boolean] default = False
                                ! If True, use the ALE algorithm (regridding/remapping). If False, use the
                                ! layered isopycnal algorithm.
DT = 300.0                      !   [s]
                                ! The (baroclinic) dynamics time step.  The time-step that is actually used will
                                ! be an integer fraction of the forcing time-step (DT_FORCING in ocean-only mode
                                ! or the coupling timestep in coupled mode.)
DTBT_RESET_PERIOD = 0.0         !   [s] default = 300.0
                                ! The period between recalculations of DTBT (if DTBT <= 0). If DTBT_RESET_PERIOD
                                ! is negative, DTBT is set based only on information available at
                                ! initialization.  If 0, DTBT will be set every dynamics time step. The default
                                ! is set by DT_THERM.  This is only used if SPLIT is true.
C_P = 3925.0                    !   [J kg-1 K-1] default = 3991.86795711963
                                ! The heat capacity of sea water, approximated as a constant. This is only used
                                ! if ENABLE_THERMODYNAMICS is true. The default value is from the TEOS-10
                                ! definition of conservative temperature.
SAVE_INITIAL_CONDS = True       !   [Boolean] default = False
                                ! If true, write the initial conditions to a file given by IC_OUTPUT_FILE.
IC_OUTPUT_FILE = "ISOMIP_IC"    ! default = "MOM_IC"
                                ! The file into which to write the initial conditions.
ICE_SHELF = True                !   [Boolean] default = False
                                ! If true, enables the ice shelf model.

! === module MOM_domains ===
REENTRANT_X = False             !   [Boolean] default = True
                                ! If true, the domain is zonally reentrant.
NIGLOBAL = 240                  !
                                ! The total number of thickness grid points in the x-direction in the physical
                                ! domain. With STATIC_MEMORY_ this is set in MOM_memory.h at compile time.
NJGLOBAL = 40                   !
                                ! The total number of thickness grid points in the y-direction in the physical
                                ! domain. With STATIC_MEMORY_ this is set in MOM_memory.h at compile time.

! === module MOM_fixed_initialization ===
INPUTDIR = "INPUT"              ! default = "."
                                ! The directory in which input files are found.

! === module MOM_grid_init ===
GRID_CONFIG = "cartesian"       !
                                ! A character string that determines the method for defining the horizontal
                                ! grid.  Current options are:
                                !     mosaic - read the grid from a mosaic (supergrid)
                                !              file set by GRID_FILE.
                                !     cartesian - use a (flat) Cartesian grid.
                                !     spherical - use a simple spherical grid.
                                !     mercator - use a Mercator spherical grid.
AXIS_UNITS = "k"                ! default = "degrees"
                                ! The units for the Cartesian axes. Valid entries are:
                                !     degrees - degrees of latitude and longitude
                                !     m or meter(s) - meters
                                !     k or km or kilometer(s) - kilometers
SOUTHLAT = 0.0                  !   [km]
                                ! The southern latitude of the domain or the equivalent starting value for the
                                ! y-axis.
LENLAT = 80.0                   !   [km]
                                ! The latitudinal or y-direction length of the domain.
WESTLON = 320.0                 !   [km] default = 0.0
                                ! The western longitude of the domain or the equivalent starting value for the
                                ! x-axis.
LENLON = 480.0                  !   [km]
                                ! The longitudinal or x-direction length of the domain.
TOPO_CONFIG = "ISOMIP"          !
                                ! This specifies how bathymetry is specified:
                                !     file - read bathymetric information from the file
                                !       specified by (TOPO_FILE).
                                !     flat - flat bottom set to MAXIMUM_DEPTH.
                                !     bowl - an analytically specified bowl-shaped basin
                                !       ranging between MAXIMUM_DEPTH and MINIMUM_DEPTH.
                                !     spoon - a similar shape to 'bowl', but with an vertical
                                !       wall at the southern face.
                                !     halfpipe - a zonally uniform channel with a half-sine
                                !       profile in the meridional direction.
                                !     bbuilder - build topography from list of functions.
                                !     benchmark - use the benchmark test case topography.
                                !     Neverworld - use the Neverworld test case topography.
                                !     DOME - use a slope and channel configuration for the
                                !       DOME sill-overflow test case.
                                !     ISOMIP - use a slope and channel configuration for the
                                !       ISOMIP test case.
                                !     DOME2D - use a shelf and slope configuration for the
                                !       DOME2D gravity current/overflow test case.
                                !     Kelvin - flat but with rotated land mask.
                                !     seamount - Gaussian bump for spontaneous motion test case.
                                !     dumbbell - Sloshing channel with reservoirs on both ends.
                                !     shelfwave - exponential slope for shelfwave test case.
                                !     Phillips - ACC-like idealized topography used in the Phillips config.
                                !     dense - Denmark Strait-like dense water formation and overflow.
                                !     USER - call a user modified routine.

! === module ISOMIP_initialize_topography ===
MINIMUM_DEPTH = 1.0             !   [m] default = 0.0
                                ! The minimum depth of the ocean.
MAXIMUM_DEPTH = 720.0           !   [m]
                                ! The maximum depth of the ocean.
ROTATION = "beta"               ! default = "2omegasinlat"
                                ! This specifies how the Coriolis parameter is specified:
                                !     2omegasinlat - Use twice the planetary rotation rate
                                !       times the sine of latitude.
                                !     betaplane - Use a beta-plane or f-plane.
                                !     USER - call a user modified routine.
F_0 = -1.408706225059977E-04    !   [s-1] default = 0.0
                                ! The reference value of the Coriolis parameter with the betaplane option.

! === module MOM_verticalGrid ===
! Parameters providing information about the vertical grid.
RHO_0 = 1027.0                  !   [kg m-3] default = 1035.0
                                ! The mean ocean density used with BOUSSINESQ true to calculate accelerations
                                ! and the mass for conservation properties, or with BOUSSINSEQ false to convert
                                ! some parameters from vertical units of m to kg m-2.
ANGSTROM = 1.0E-15              !   [m] default = 1.0E-10
                                ! The minimum layer thickness, usually one-Angstrom.
NK = 36                         !   [nondim]
                                ! The number of model layers.

! === module MOM_EOS ===
EQN_OF_STATE = "LINEAR"         ! default = "WRIGHT_FULL"
                                ! EQN_OF_STATE determines which ocean equation of state should be used.
                                ! Currently, the valid choices are "LINEAR", "UNESCO", "JACKETT_MCD", "WRIGHT",
                                ! "WRIGHT_REDUCED", "WRIGHT_FULL", "NEMO", "ROQUET_RHO", "ROQUET_SPV" and
                                ! "TEOS10".  This is only used if USE_EOS is true.
DRHO_DT = -0.0383569483         !   [kg m-3 K-1] default = -0.2
                                ! When EQN_OF_STATE=LINEAR, this is the partial derivative of density with
                                ! temperature.
DRHO_DS = 0.805876093           !   [kg m-3 ppt-1] default = 0.8
                                ! When EQN_OF_STATE=LINEAR, this is the partial derivative of density with
                                ! salinity.
RHO_T0_S0 = 999.9106806711001   !   [kg m-3] default = 1000.0
                                ! When EQN_OF_STATE=LINEAR, this is the density at T=0, S=0 and p=0.  If
                                ! RHO_TO_SO is specified, RHO_REF_LINEAR_EOS, T_REF_LINEAR_EOS, S_REF_LINEAR_EOS
                                ! and P_REF_LINEAR_EOS are not used.
TFREEZE_S0_P0 = 0.0832          !   [degC] default = 0.0
                                ! When TFREEZE_FORM=LINEAR, this is the freezing potential temperature at S=0,
                                ! P=0.
DTFREEZE_DS = -0.0573           !   [degC ppt-1] default = -0.054
                                ! When TFREEZE_FORM=LINEAR, this is the derivative of the freezing potential
                                ! temperature with salinity.
DTFREEZE_DP = -7.53E-08         !   [degC Pa-1] default = 0.0
                                ! When TFREEZE_FORM=LINEAR, this is the derivative of the freezing potential
                                ! temperature with pressure.

! === module MOM_tracer_flow_control ===

! === module MOM_coord_initialization ===
COORD_CONFIG = "linear"         ! default = "none"
                                ! This specifies how layers are to be defined:
                                !     ALE or none - used to avoid defining layers in ALE mode
                                !     file - read coordinate information from the file
                                !       specified by (COORD_FILE).
                                !     BFB - Custom coords for buoyancy-forced basin case
                                !       based on SST_S, T_BOT and DRHO_DT.
                                !     linear - linear based on interfaces not layers
                                !     layer_ref - linear based on layer densities
                                !     ts_ref - use reference temperature and salinity
                                !     ts_range - use range of temperature and salinity
                                !       (T_REF and S_REF) to determine surface density
                                !       and GINT calculate internal densities.
                                !     gprime - use reference density (RHO_0) for surface
                                !       density and GINT calculate internal densities.
                                !     ts_profile - use temperature and salinity profiles
                                !       (read from COORD_FILE) to set layer densities.
                                !     USER - call a user modified routine.
LIGHTEST_DENSITY = 1027.1524    !   [kg m-3] default = 1027.0
                                ! The reference potential density used for the surface interface.
DENSITY_RANGE = 0.7438856       !   [kg m-3] default = 2.0
                                ! The range of reference potential densities across all interfaces.
REGRIDDING_COORDINATE_MODE = "SIGMA_SHELF_ZSTAR" ! default = "LAYER"
                                ! Coordinate mode for vertical regridding. Choose among the following
                                ! possibilities:  LAYER - Isopycnal or stacked shallow water layers
                                !  ZSTAR, Z* - stretched geopotential z*
                                !  SIGMA_SHELF_ZSTAR - stretched geopotential z* ignoring shelf
                                !  SIGMA - terrain following coordinates
                                !  RHO   - continuous isopycnal
                                !  HYCOM1 - HyCOM-like hybrid coordinate
                                !  HYBGEN - Hybrid coordinate from the Hycom hybgen code
                                !  ADAPTIVE - optimize for smooth neutral density surfaces
!ALE_RESOLUTION = 36*20.0       !   [m]
                                ! The distribution of vertical resolution for the target
                                ! grid used for Eulerian-like coordinates. For example,
                                ! in z-coordinate mode, the parameter is a list of level
                                ! thicknesses (in m). In sigma-coordinate mode, the list
                                ! is of non-dimensional fractions of the water column.
MIN_THICKNESS = 1.0E-12         !   [m] default = 0.001
                                ! When regridding, this is the minimum layer thickness allowed.
REMAPPING_SCHEME = "PPM_H4"     ! default = "PLM"
                                ! This sets the reconstruction scheme used for vertical remapping for all
                                ! variables. It can be one of the following schemes:
                                ! PCM         (1st-order accurate)
                                ! PLM         (2nd-order accurate)
                                ! PLM_HYBGEN  (2nd-order accurate)
                                ! PPM_H4      (3rd-order accurate)
                                ! PPM_IH4     (3rd-order accurate)
                                ! PPM_HYBGEN  (3rd-order accurate)
                                ! WENO_HYBGEN (3rd-order accurate)
                                ! PQM_IH4IH3  (4th-order accurate)
                                ! PQM_IH6IH5  (5th-order accurate)
INIT_BOUNDARY_EXTRAP = True     !   [Boolean] default = False
                                ! If true, values at the interfaces of boundary cells are extrapolated instead
                                ! of piecewise constant during initialization.Defaults to REMAP_BOUNDARY_EXTRAP.
REMAPPING_USE_OM4_SUBCELLS = False !   [Boolean] default = True
                                ! This selects the remapping algorithm used in OM4 that does not use the full
                                ! reconstruction for the top- and lower-most sub-layers, but instead assumes
                                ! they are always vanished (untrue) and so just uses their edge values. We
                                ! recommend setting this option to false.

! === module MOM_domains min_halo ===

! === module MOM_grid_init ===

! === module ISOMIP_initialize_topography ===

! === module MOM_ice_shelf ===
SHELF_THERMO = True             !   [Boolean] default = False
                                ! If true, use a thermodynamically interactive ice shelf.
SHELF_INSULATOR = True          !   [Boolean] default = False
                                ! If true, the ice shelf is a perfect insulator (no conduction).
ICE_SHELF_TEMPERATURE = -20.0   !   [degC] default = -15.0
                                ! The temperature at the center of the ice shelf.
DT_FORCING = 300.0              !   [s] default = 0.0
                                ! The time step for changing forcing, coupling with other components, or
                                ! potentially writing certain diagnostics. The default value is given by DT.
COL_THICK_MELT_THRESHOLD = 10.0 !   [m] default = 0.0
                                ! The minimum ocean column thickness where melting is allowed.
UTIDE = 0.01                    !   [m s-1] default = 0.0
                                ! The constant tidal amplitude used with INT_TIDE_DISSIPATION.

! === module MOM_EOS ===
USTAR_SHELF_BG = 0.001          !   [m s-1] default = 0.0
                                ! The minimum value of ustar under ice shelves.
CDRAG_SHELF = 0.025             !   [nondim] default = 0.003
                                ! CDRAG is the drag coefficient relating the magnitude of the velocity field to
                                ! the surface stress.
ICE_PROFILE_CONFIG = "FILE"     !
                                ! This specifies how the initial ice profile is specified. Valid values are:
                                ! CHANNEL, FILE, and USER.
ICE_THICKNESS_FILE = "Ocean0_3D_Claire.nc" ! default = "ice_shelf_h.nc"
                                ! The file from which the bathymetry is read.
ICE_THICKNESS_VARNAME = "thick" ! default = "h_shelf"
                                ! The name of the thickness variable in ICE_THICKNESS_FILE.
ICE_AREA_VARNAME = "area"       ! default = "area_shelf_h"
                                ! The name of the area variable in ICE_THICKNESS_FILE.

! === module MOM_state_initialization ===
THICKNESS_CONFIG = "ISOMIP"     ! default = "uniform"
                                ! A string that determines how the initial layer thicknesses are specified for a
                                ! new run:
                                !     file - read interface heights from the file specified
                                !       by (THICKNESS_FILE).
                                !     thickness_file - read thicknesses from the file specified
                                !       by (THICKNESS_FILE).
                                !     mass_file - read thicknesses in units of mass per unit area from the file
                                !       specified by (THICKNESS_FILE).
                                !     coord - determined by ALE coordinate.
                                !     uniform - uniform thickness layers evenly distributed
                                !       between the surface and MAXIMUM_DEPTH.
                                !     list - read a list of positive interface depths.
                                !     param - use thicknesses from parameter THICKNESS_INIT_VALUES.
                                !     DOME - use a slope and channel configuration for the
                                !       DOME sill-overflow test case.
                                !     ISOMIP - use a configuration for the
                                !       ISOMIP test case.
                                !     benchmark - use the benchmark test case thicknesses.
                                !     Neverworld - use the Neverworld test case thicknesses.
                                !     search - search a density profile for the interface
                                !       densities. This is not yet implemented.
                                !     circle_obcs - the circle_obcs test case is used.
                                !     DOME2D - 2D version of DOME initialization.
                                !     adjustment2d - 2D lock exchange thickness ICs.
                                !     sloshing - sloshing gravity thickness ICs.
                                !     seamount - no motion test with seamount ICs.
                                !     dumbbell - sloshing channel ICs.
                                !     soliton - Equatorial Rossby soliton.
                                !     rossby_front - a mixed layer front in thermal wind balance.
                                !     USER - call a user modified routine.
TS_CONFIG = "ISOMIP"            !
                                ! A string that determines how the initial temperatures and salinities are
                                ! specified for a new run:
                                !     file - read velocities from the file specified
                                !       by (TS_FILE).
                                !     fit - find the temperatures that are consistent with
                                !       the layer densities and salinity S_REF.
                                !     TS_profile - use temperature and salinity profiles
                                !       (read from TS_FILE) to set layer densities.
                                !     benchmark - use the benchmark test case T & S.
                                !     linear - linear in logical layer space.
                                !     DOME2D - 2D DOME initialization.
                                !     ISOMIP - ISOMIP initialization.
                                !     adjustment2d - 2d lock exchange T/S ICs.
                                !     sloshing - sloshing mode T/S ICs.
                                !     seamount - no motion test with seamount ICs.
                                !     dumbbell - sloshing channel ICs.
                                !     rossby_front - a mixed layer front in thermal wind balance.
                                !     SCM_CVMix_tests - used in the SCM CVMix tests.
                                !     USER - call a user modified routine.
ISOMIP_T_BOT = 1.0              !   [degC] default = -1.9
                                ! Temperature at the bottom (interface)
ISOMIP_S_BOT = 34.7             !   [ppt] default = 34.55
                                ! Salinity at the bottom (interface)
TRIM_IC_FOR_P_SURF = True       !   [Boolean] default = False
                                ! If true, cuts way the top of the column for initial conditions at the depth
                                ! where the hydrostatic pressure matches the imposed surface pressure which is
                                ! read from file.
SURFACE_PRESSURE_FILE = "Ocean0_3D_Claire.nc" !
                                ! The initial condition file for the surface pressure exerted by ice.
SURFACE_PRESSURE_VAR = "thick"  ! default = ""
                                ! The initial condition variable for the surface pressure exerted by ice.
SURFACE_PRESSURE_SCALE = 8820.0 !   [file dependent] default = 1.0
                                ! A scaling factor to convert SURFACE_PRESSURE_VAR from file
                                ! SURFACE_PRESSURE_FILE into a surface pressure.
TRIM_IC_Z_TOLERANCE = 1.0E-10   !   [m] default = 1.0E-05
                                ! The tolerance with which to find the depth matching the specified surface
                                ! pressure with TRIM_IC_FOR_P_SURF.
TRIMMING_USES_REMAPPING = True  !   [Boolean] default = False
                                ! When trimming the column, also remap T and S.
SPONGE = True                   !   [Boolean] default = False
                                ! If true, sponges may be applied anywhere in the domain. The exact location and
                                ! properties of those sponges are specified via SPONGE_CONFIG.
SPONGE_CONFIG = "ISOMIP"        ! default = "file"
                                ! A string that sets how the sponges are configured:
                                !     file - read sponge properties from the file
                                !       specified by (SPONGE_FILE).
                                !     ISOMIP - apply ale sponge in the ISOMIP case
                                !     RGC - apply sponge in the rotating_gravity_current case
                                !     DOME - use a slope and channel configuration for the
                                !       DOME sill-overflow test case.
                                !     BFB - Sponge at the southern boundary of the domain
                                !       for buoyancy-forced basin case.
                                !     USER - call a user modified routine.
ISOMIP_TNUDG = 0.1              !   [days] default = 0.0
                                ! Nudging time scale for sponge layers
ISOMIP_S_SUR_SPONGE = 33.8      !   [ppt] default = 35.0
                                ! Surface salinity in sponge layer.
ISOMIP_S_BOT_SPONGE = 34.7      !   [ppt] default = 35.0
                                ! Bottom salinity in sponge layer.
ISOMIP_T_SUR_SPONGE = -1.9      !   [degC] default = 10.0
                                ! Surface temperature in sponge layer.
ISOMIP_T_BOT_SPONGE = 1.0       !   [degC] default = 10.0
                                ! Bottom temperature in sponge layer.

! === module MOM_sponge ===

! === module MOM_diag_mediator ===

! === module MOM_lateral_mixing_coeffs ===

! === module MOM_set_visc ===
LINEAR_DRAG = True              !   [Boolean] default = False
                                ! If LINEAR_DRAG and BOTTOMDRAGLAW are defined the drag law is
                                ! cdrag*DRAG_BG_VEL*u.
HBBL = 10.0                     !   [m]
                                ! The thickness of a bottom boundary layer with a viscosity increased by
                                ! KV_EXTRA_BBL if BOTTOMDRAGLAW is not defined, or the thickness over which
                                ! near-bottom velocities are averaged for the drag law if BOTTOMDRAGLAW is
                                ! defined but LINEAR_DRAG is not.
DRAG_BG_VEL = 0.05              !   [m s-1] default = 0.0
                                ! DRAG_BG_VEL is either the assumed bottom velocity (with LINEAR_DRAG) or an
                                ! unresolved  velocity that is combined with the resolved velocity to estimate
                                ! the velocity magnitude.  DRAG_BG_VEL is only used when BOTTOMDRAGLAW is
                                ! defined.
BBL_THICK_MIN = 2.0             !   [m] default = 0.0
                                ! The minimum bottom boundary layer thickness that can be used with
                                ! BOTTOMDRAGLAW. This might be Kv/(cdrag*drag_bg_vel) to give Kv as the minimum
                                ! near-bottom viscosity.
KV = 0.001                      !   [m2 s-1]
                                ! The background kinematic viscosity in the interior. The molecular value, ~1e-6
                                ! m2 s-1, may be used.
KV_TBL_MIN = 0.01               !   [m2 s-1] default = 0.001
                                ! The minimum viscosities in the top boundary layer.

! === module MOM_thickness_diffuse ===

! === module MOM_dynamics_split_RK2 ===
BE = 0.7                        !   [nondim] default = 0.6
                                ! If SPLIT is true, BE determines the relative weighting of a  2nd-order
                                ! Runga-Kutta baroclinic time stepping scheme (0.5) and a backward Euler scheme
                                ! (1) that is used for the Coriolis and inertial terms.  BE may be from 0.5 to
                                ! 1, but instability may occur near 0.5. BE is also applicable if SPLIT is false
                                ! and USE_RK2 is true.

! === module MOM_continuity_PPM ===
ETA_TOLERANCE = 1.0E-12         !   [m] default = 1.8E-14
                                ! The tolerance for the differences between the barotropic and baroclinic
                                ! estimates of the sea surface height due to the fluxes through each face.  The
                                ! total tolerance for SSH is 4 times this value.  The default is
                                ! 0.5*NK*ANGSTROM, and this should not be set less than about
                                ! 10^-15*MAXIMUM_DEPTH.

! === module MOM_CoriolisAdv ===
CORIOLIS_EN_DIS = True          !   [Boolean] default = False
                                ! If true, two estimates of the thickness fluxes are used to estimate the
                                ! Coriolis term, and the one that dissipates energy relative to the other one is
                                ! used.
BOUND_CORIOLIS = True           !   [Boolean] default = False
                                ! If true, the Coriolis terms at u-points are bounded by the four estimates of
                                ! (f+rv)v from the four neighboring v-points, and similarly at v-points.  This
                                ! option is always effectively false with CORIOLIS_EN_DIS defined and
                                ! CORIOLIS_SCHEME set to SADOURNY75_ENERGY.

! === module MOM_PressureForce ===

! === module MOM_PressureForce_FV ===
MASS_WEIGHT_IN_PRESSURE_GRADIENT = True !   [Boolean] default = False
                                ! If true, use mass weighting when interpolating T/S for integrals near the
                                ! bathymetry in FV pressure gradient calculations.
MASS_WEIGHT_IN_PGF_VANISHED_ONLY = True !   [Boolean] default = False
                                ! If true, use mass weighting when interpolating T/S for integrals only if one
                                ! side is vanished according to RESET_INTXPA_H_NONVANISHED.
RESET_INTXPA_INTEGRAL = True    !   [Boolean] default = False
                                ! If true, reset INTXPA to match pressures at first nonvanished cell. Includes
                                ! pressure correction.
RESET_INTXPA_INTEGRAL_FLATTEST = True !   [Boolean] default = False
                                ! If true, use flattest interface as reference interface where there is no
                                ! better choice for RESET_INTXPA_INTEGRAL. Otherwise, use surface interface.

! === module MOM_Zanna_Bolton ===

! === module MOM_hor_visc ===
LAPLACIAN = True                !   [Boolean] default = False